Circuit: * C:\Users\sergi\Desktop\Hot-Plate\02 - Siumulation\04 - Mosfet\Draft1.asc

WARNING: Less than two connections to node n003.  This node is used by v2.
Direct Newton iteration failed to find .op point.  (Use ".option noopiter" to skip.)
Starting Gmin stepping
Gmin = 10
Gmin = 1.07374
Gmin = 0.115292
Gmin = 0.0123794
Gmin = 0.00132923
vernier = 0.5
vernier = 0.25
vernier = 0.125
vernier = 0.0625
Gmin = 0.00100083
vernier = 0.03125
vernier = 0.015625
vernier = 0.0078125
vernier = 0.00390625
vernier = 0.00195312
Gmin = 0.00100083
vernier = 0.000976562
vernier = 0.000488281
Gmin = 0
Gmin stepping succeeded in finding the operating point.


Date: Mon Jul 31 21:19:20 2023
Total elapsed time: 0.205 seconds.

tnom = 27
temp = 27
method = modified trap
totiter = 3578
traniter = 2102
tranpoints = 1052
accept = 1052
rejected = 0
matrix size = 60
fillins = 41
solver = Normal
Avg thread counts: 1.3/1.6/1.6/1.3
Matrix Compiler1: 3.79 KB object code size  1.5/1.5/[0.5]
Matrix Compiler2: 5.50 KB object code size  0.8/1.0/[0.5]

