Circuit: * C:\Users\sergi\Desktop\Hot-Plate\02 - Siumulation\04 - Mosfet\LTSpice.asc

Instance "m:u1:1": Length shorter than recommended for a level 3 MOSFET.
Instance "m:u1:2": Length shorter than recommended for a level 3 MOSFET.
Direct Newton iteration for .op point succeeded.

Date: Sun Jan 21 10:32:39 2024
Total elapsed time: 0.403 seconds.

tnom = 27
temp = 27
method = modified trap
totiter = 3879
traniter = 3830
tranpoints = 1727
accept = 1464
rejected = 263
matrix size = 19
fillins = 8
solver = Normal
Avg thread counts: 1.2/1.4/1.4/1.2
Matrix Compiler1: 1.19 KB object code size  3.0/2.6/[1.2]
Matrix Compiler2: 1.43 KB object code size  1.3/2.9/[1.3]

