Circuit: * C:\Users\sergi\Desktop\Hot-Plate\02 - Siumulation\05 - NTC\Draft1.asc

WARNING: Less than two connections to node ideal.  This node is used by b1.

Date: Mon Aug  7 00:07:21 2023
Total elapsed time: 0.084 seconds.

tnom = 27
temp = 251
method = trap
totiter = 655
traniter = 0
tranpoints = 0
accept = 0
rejected = 0
matrix size = 15
fillins = 9
solver = Normal
Avg thread counts: 2.0/0.0/3.2/2.0
Matrix Compiler1: 1.56 KB object code size  0.4/0.5/[0.3]
Matrix Compiler2: off  [0.2]/0.4/0.2

