Circuit: * C:\Users\sergi\Desktop\Hot-Plate\02 - Siumulation\05 - NTC\LTSpice.asc

WARNING: Less than two connections to node ideal.  This node is used by b2.
Instance "m:u2:1": Length shorter than recommended for a level 2 MOSFET.
Instance "m:u2:2": Length shorter than recommended for a level 2 MOSFET.
Instance "m:u2:3": Length shorter than recommended for a level 2 MOSFET.
Instance "m:u2:4": Length shorter than recommended for a level 2 MOSFET.
Instance "m:u2:5": Length shorter than recommended for a level 2 MOSFET.
Instance "m:u2:6": Length shorter than recommended for a level 2 MOSFET.
No AC stimulus found:
     Set the value of a current or voltage source to "AC 1."
     to make it behave as a signal generator for AC analysis.
Direct Newton iteration failed to find .op point.  (Use ".option noopiter" to skip.)
Starting Gmin stepping
Gmin = 10
Gmin = 1.07374
Gmin = 0.115292
Gmin = 0.0123794
Gmin = 0.00132923
Gmin = 0.000142725
Gmin = 1.5325e-05
Gmin = 1.6455e-06
Gmin = 1.76685e-07
Gmin = 1.89714e-08
Gmin = 2.03704e-09
Gmin = 2.18725e-10
Gmin = 2.34854e-11
Gmin = 2.52173e-12
Gmin = 2.70769e-13
Gmin = 0
Gmin stepping succeeded in finding the operating point.


Date: Tue Jan 23 00:24:16 2024
Total elapsed time: 0.151 seconds.

tnom = 27
temp = 27
method = trap
totiter = 445
traniter = 0
tranpoints = 0
accept = 0
rejected = 0
matrix size = 45
fillins = 12
solver = Normal
Avg thread counts: 2.5/0.0/5.1/1.1
Matrix Compiler1:     186 opcodes
Matrix Compiler2: off  [0.7]/0.9/0.8

