Circuit: * C:\Users\sergi\Desktop\Hot-Plate\02 - Siumulation\02 - BUS PMOS\Draft1.asc

WARNING: Specified period is not longer than the sum of Trise, Tfall, and Ton for v2.  Increasing period to 0.0300001
Limiting fall time of source v2 to 5.89806e-18
WARNING: Specified period is not longer than the sum of Trise, Tfall, and Ton for v4.  Increasing period to 0.0300001
Limiting fall time of source v4 to 5.89806e-18
WARNING: Node N006 is floating.
WARNING: Node N001 is floating.

Direct Newton iteration for .op point succeeded.

Date: Sun May 14 09:58:28 2023
Total elapsed time: 0.298 seconds.

tnom = 27
temp = 27
method = modified trap
totiter = 2584
traniter = 2581
tranpoints = 1224
accept = 1192
rejected = 32
matrix size = 12
fillins = 0
solver = Normal
Avg thread counts: 1.3/1.5/1.5/1.3
Matrix Compiler1: 356 bytes object code size  1.7/1.4/[1.1]
Matrix Compiler2: 732 bytes object code size  1.3/2.2/[0.9]

