Circuit: * C:\Users\sergi\Desktop\Hot-Plate\02 - Siumulation\02 - BUS PMOS\PMOS.asc

Limiting fall time of source v1 to 10
WARNING: Node N003 is floating.

.OP point found by inspection.

Date: Wed Jan 17 23:03:46 2024
Total elapsed time: 0.103 seconds.

tnom = 27
temp = 27
method = modified trap
totiter = 2563
traniter = 2563
tranpoints = 1217
accept = 1161
rejected = 56
matrix size = 17
fillins = 14
solver = Normal
Avg thread counts: 1.3/1.5/1.5/1.3
Matrix Compiler1: 1.62 KB object code size  1.0/0.8/[0.5]
Matrix Compiler2: off  [0.3]/0.4/0.4

