Circuit: * C:\Users\sergi\Desktop\Hot-Plate\02 - Siumulation\03 - Push Button\Draft1.asc

Direct Newton iteration failed to find .op point.  (Use ".option noopiter" to skip.)
Starting Gmin stepping
Gmin = 10
vernier = 0.5
Gmin = 1.86414
vernier = 0.25
vernier = 0.125
vernier = 0.0625
vernier = 0.03125
Gmin = 1.98679
vernier = 0.015625
vernier = 0.0078125
Gmin = 1.95985
vernier = 0.0104167
vernier = 0.0138889
Gmin = 1.90294
vernier = 0.0185185
vernier = 0.0246913
Gmin = 1.81565
vernier = 0.0329218
Gmin = 1.68649
vernier = 0.0438957
vernier = 0.0585276
Gmin = 1.49042
vernier = 0.0780367
vernier = 0.104049
Gmin = 1.22473
vernier = 0.138732
vernier = 0.0693659
vernier = 0.034683
Gmin = 1.02345
vernier = 0.0173415
vernier = 0.00867074
vernier = 0.00433537
Gmin = 1.00917
vernier = 0.00216769
vernier = 0.00108384
Gmin = 1.00481
vernier = 0.00144512
vernier = 0.000722562
Gmin = 1.00291
vernier = 0.000541921
vernier = 0.000406441
Gmin = 1.00211
Gmin = 0
Gmin stepping failed

Starting source stepping with srcstepmethod=0
Source Step = 3.0303%
Source Step = 33.3333%
Source Step = 63.6364%
Source Step = 93.9394%
Source stepping succeeded in finding the operating point.


Date: Sat May 20 19:51:03 2023
Total elapsed time: 0.712 seconds.

tnom = 27
temp = 27
method = trap
totiter = 24884
traniter = 0
tranpoints = 0
accept = 0
rejected = 0
matrix size = 128
fillins = 246
solver = Normal
Avg thread counts: 1.0/0.0/1.1/1.0
Matrix Compiler1:     996 opcodes  3.1/2.9/[0.9]
Matrix Compiler2: 13.71 KB object code size  1.7/3.0/[0.9]

