Circuit: * C:\Users\sergi\Desktop\Hot-Plate\02 - Siumulation\03 - Push Button\LTSpice.asc

WARNING: Specified period is not longer than the sum of Trise, Tfall, and Ton for v4.  Increasing period to 0.0300002
WARNING: Specified period is not longer than the sum of Trise, Tfall, and Ton for v6.  Increasing period to 0.0300002
WARNING: Node N007 is floating.
WARNING: Node N002 is floating.

Direct Newton iteration for .op point succeeded.

Date: Mon Jul 24 23:11:36 2023
Total elapsed time: 0.117 seconds.

tnom = 27
temp = 27
method = modified trap
totiter = 5377
traniter = 5374
tranpoints = 2386
accept = 2123
rejected = 263
matrix size = 16
fillins = 0
solver = Normal
Avg thread counts: 1.1/1.3/1.3/1.1
Matrix Compiler1: 448 bytes object code size  0.3/0.3/[0.3]
Matrix Compiler2: off  [0.2]/0.3/0.3

