Circuit: * C:\Users\sergi\Desktop\Hot-Plate\02 - Siumulation\03 - Push Button\LTSpice.asc

WARNING: Specified period is not longer than the sum of Trise, Tfall, and Ton for v4.  Increasing period to 0.0300002
WARNING: Specified period is not longer than the sum of Trise, Tfall, and Ton for v6.  Increasing period to 0.0300002
WARNING: Node N007 is floating.
WARNING: Node N002 is floating.

Direct Newton iteration for .op point succeeded.

Date: Sun May 14 10:09:35 2023
Total elapsed time: 0.364 seconds.

tnom = 27
temp = 27
method = modified trap
totiter = 5377
traniter = 5374
tranpoints = 2386
accept = 2123
rejected = 263
matrix size = 16
fillins = 0
solver = Normal
Avg thread counts: 1.1/1.3/1.3/1.1
Matrix Compiler1: 448 bytes object code size  1.9/1.2/[0.9]
Matrix Compiler2: 956 bytes object code size  1.5/2.6/[1.0]

