Circuit: * C:\Users\sergi\Desktop\Hot-Plate\02 - Siumulation\01 - LED Fault\LED_FAULT.asc

Direct Newton iteration for .op point succeeded.

Date: Mon Jul 24 23:12:11 2023
Total elapsed time: 0.133 seconds.

tnom = 27
temp = 27
method = modified trap
totiter = 2575
traniter = 2552
tranpoints = 1246
accept = 1198
rejected = 48
matrix size = 23
fillins = 7
solver = Normal
Avg thread counts: 1.3/1.5/1.5/1.3
Matrix Compiler1: 1.43 KB object code size  0.8/0.6/[0.3]
Matrix Compiler2: 1.79 KB object code size  0.5/0.8/[0.3]

