Circuit: * C:\Users\sergi\Desktop\Hot-Plate\02 - Siumulation\01 - LED Fault\LED_FAULT.asc

Direct Newton iteration for .op point succeeded.

Date: Sat Apr 29 21:05:53 2023
Total elapsed time: 0.091 seconds.

tnom = 27
temp = 27
method = modified trap
totiter = 2575
traniter = 2552
tranpoints = 1246
accept = 1198
rejected = 48
matrix size = 23
fillins = 7
solver = Normal
Avg thread counts: 1.3/1.5/1.5/1.3
Matrix Compiler1: 1.43 KB object code size  0.7/0.6/[0.3]
Matrix Compiler2: 1.79 KB object code size  0.4/0.7/[0.3]

