Circuit: * C:\Users\sergi\Desktop\Hot-Plate\02 - Siumulation\02 - BUS PMOS\Reverse Polarity\PMOS.asc

Limiting fall time of source v1 to 10
WARNING: Node N003 is floating.

.OP point found by inspection.

Date: Mon Jul 24 23:10:53 2023
Total elapsed time: 0.097 seconds.

tnom = 27
temp = 27
method = modified trap
totiter = 2629
traniter = 2629
tranpoints = 1223
accept = 1174
rejected = 49
matrix size = 17
fillins = 14
solver = Normal
Avg thread counts: 1.2/1.5/1.5/1.2
Matrix Compiler1: 1.62 KB object code size  0.5/0.6/[0.4]
Matrix Compiler2: off  [0.2]/0.4/0.3

